Version 4
SHEET 1 3420 3584
WIRE -288 304 -288 240
WIRE -288 432 -288 384
WIRE -1088 592 -1088 560
WIRE -992 608 -1056 608
WIRE -1424 624 -1664 624
WIRE -1296 624 -1424 624
WIRE -1184 624 -1216 624
WIRE -1120 624 -1184 624
WIRE -1024 640 -1056 640
WIRE -992 640 -992 608
WIRE -1664 672 -1664 624
WIRE -1424 672 -1424 624
WIRE -1184 672 -1184 624
WIRE -1088 672 -1088 656
WIRE -1952 720 -2048 720
WIRE -1792 720 -1872 720
WIRE -1728 720 -1792 720
WIRE -1344 720 -1360 720
WIRE -1344 736 -1344 720
WIRE -496 736 -496 672
WIRE -2048 768 -2048 720
WIRE -1792 768 -1792 720
WIRE -1664 816 -1664 768
WIRE -1184 816 -1184 736
WIRE -1184 816 -1664 816
WIRE -1024 816 -1024 640
WIRE -1024 816 -1184 816
WIRE -496 848 -496 816
WIRE -496 848 -544 848
WIRE -544 864 -544 848
WIRE -2048 880 -2048 848
WIRE -1792 880 -1792 848
WIRE -496 880 -496 848
WIRE -1664 896 -1664 816
WIRE -496 1008 -496 960
WIRE -1664 1024 -1664 976
WIRE -1424 1152 -1424 768
WIRE -1216 1200 -1232 1200
WIRE -1104 1200 -1136 1200
WIRE -1168 1328 -1168 1312
WIRE -2064 1344 -2192 1344
WIRE -1920 1344 -2000 1344
WIRE -1760 1344 -1840 1344
WIRE -1616 1344 -1760 1344
WIRE -1520 1344 -1520 1328
WIRE -1232 1344 -1232 1200
WIRE -1232 1344 -1376 1344
WIRE -1200 1344 -1232 1344
WIRE -1104 1360 -1104 1200
WIRE -1104 1360 -1136 1360
WIRE -976 1360 -1104 1360
WIRE -1424 1376 -1424 1232
WIRE -1200 1376 -1216 1376
WIRE -1376 1408 -1376 1344
WIRE -1376 1408 -1392 1408
WIRE -1216 1408 -1216 1376
WIRE -1168 1424 -1168 1392
WIRE -1760 1440 -1760 1424
WIRE -2192 1472 -2192 1344
WIRE -1616 1472 -1664 1472
WIRE -1664 1520 -1664 1472
WIRE -1520 1520 -1520 1472
WIRE -2192 1632 -2192 1552
WIRE -1664 1632 -1664 1600
WIRE -848 3056 -880 3056
WIRE -720 3056 -768 3056
WIRE -608 3056 -640 3056
WIRE 32 3056 -48 3056
WIRE 208 3056 112 3056
WIRE 768 3072 320 3072
WIRE -800 3168 -800 3152
WIRE -1088 3184 -1104 3184
WIRE -992 3184 -1024 3184
WIRE -880 3184 -880 3056
WIRE -880 3184 -912 3184
WIRE -832 3184 -880 3184
WIRE 32 3184 32 3168
WIRE -608 3200 -608 3056
WIRE -608 3200 -768 3200
WIRE -592 3200 -608 3200
WIRE -384 3200 -512 3200
WIRE -352 3200 -384 3200
WIRE -176 3200 -352 3200
WIRE -48 3200 -48 3056
WIRE -48 3200 -96 3200
WIRE 0 3200 -48 3200
WIRE 368 3200 368 3184
WIRE -832 3216 -848 3216
WIRE 128 3216 64 3216
WIRE 208 3216 208 3056
WIRE 208 3216 192 3216
WIRE 240 3216 208 3216
WIRE 320 3216 320 3072
WIRE 336 3216 320 3216
WIRE 1072 3216 1072 3184
WIRE 0 3232 -16 3232
WIRE 496 3232 400 3232
WIRE 576 3232 560 3232
WIRE 768 3232 768 3072
WIRE 768 3232 656 3232
WIRE 896 3232 768 3232
WIRE 1040 3232 896 3232
WIRE -848 3248 -848 3216
WIRE 240 3248 240 3216
WIRE 336 3248 240 3248
WIRE 1152 3248 1104 3248
WIRE -800 3264 -800 3232
WIRE -16 3264 -16 3232
WIRE 896 3264 896 3232
WIRE 1040 3264 1008 3264
WIRE -384 3280 -384 3264
WIRE -352 3280 -352 3264
WIRE -352 3280 -384 3280
WIRE 32 3280 32 3248
WIRE 768 3280 768 3232
WIRE -384 3296 -384 3280
WIRE 368 3296 368 3264
WIRE 1072 3296 1072 3280
WIRE 768 3376 768 3344
WIRE 896 3376 896 3344
WIRE 1008 3392 1008 3264
WIRE 1040 3392 1008 3392
WIRE 1152 3392 1152 3248
WIRE 1152 3392 1120 3392
WIRE 1216 3392 1152 3392
WIRE 1008 3472 1008 3392
WIRE 1008 3568 1008 3552
FLAG -2192 1632 0
FLAG -496 672 +9
FLAG -496 1008 -9
FLAG -544 864 0
FLAG -1760 1440 0
FLAG -1664 1632 0
FLAG -1792 880 0
FLAG -1344 736 0
FLAG -1216 1408 0
FLAG -992 640 0
FLAG -1664 1024 -9
FLAG -1520 1520 -9
FLAG -1088 560 -9
FLAG -1168 1424 -9
FLAG -1088 672 +9
FLAG -1520 1328 +9
FLAG -1168 1312 +9
FLAG -2048 880 0
FLAG -976 1360 GTR
FLAG -288 240 vcc
FLAG -288 432 0
FLAG -848 3248 0
FLAG -800 3152 +9
FLAG -800 3264 -9
FLAG -1104 3184 GTR
FLAG -384 3296 0
FLAG -16 3264 0
FLAG 32 3168 +9
FLAG 32 3280 -9
FLAG 368 3184 +9
FLAG 368 3296 -9
FLAG 768 3376 0
FLAG 896 3376 0
FLAG 1072 3296 +9
FLAG 1072 3184 -9
FLAG 1008 3568 0
FLAG 1216 3392 ENV
SYMBOL voltage -2192 1456 R0
SYMATTR InstName V1
SYMATTR Value SINE(0 0.1 440)
SYMBOL voltage -496 720 R0
SYMATTR InstName V2
SYMATTR Value 9
SYMBOL voltage -496 864 R0
SYMATTR InstName V3
SYMATTR Value 9
SYMBOL LM13700 -1552 1328 R0
SYMATTR InstName U1
SYMBOL res -1440 1136 R0
SYMATTR InstName R1
SYMATTR Value 4.7k
SYMBOL res -1824 1328 R90
WINDOW 0 0 56 VBottom 2
WINDOW 3 32 56 VTop 2
SYMATTR InstName R2
SYMATTR Value 100k
SYMBOL res -1744 1440 R180
WINDOW 0 36 76 Left 2
WINDOW 3 36 40 Left 2
SYMATTR InstName R3
SYMATTR Value 680
SYMBOL res -1648 1616 R180
WINDOW 0 36 76 Left 2
WINDOW 3 36 40 Left 2
SYMATTR InstName R4
SYMATTR Value 680
SYMBOL cap -2000 1328 R90
WINDOW 0 0 32 VBottom 2
WINDOW 3 32 32 VTop 2
SYMATTR InstName C1
SYMATTR Value 470n
SYMBOL pnp -1360 768 R180
SYMATTR InstName Q1
SYMATTR Value BC857A
SYMBOL pnp -1728 768 M180
SYMATTR InstName Q2
SYMATTR Value BC857A
SYMBOL res -1200 608 R90
WINDOW 0 0 56 VBottom 2
WINDOW 3 32 56 VTop 2
SYMATTR InstName R5
SYMATTR Value 4.7k
SYMBOL res -1856 704 R90
WINDOW 0 0 56 VBottom 2
WINDOW 3 32 56 VTop 2
SYMATTR InstName R6
SYMATTR Value 91k
SYMBOL res -1776 864 R180
WINDOW 0 36 76 Left 2
WINDOW 3 36 40 Left 2
SYMATTR InstName R7
SYMATTR Value 2k7
SYMBOL res -1648 992 R180
WINDOW 0 36 76 Left 2
WINDOW 3 36 40 Left 2
SYMATTR InstName R8
SYMATTR Value 470k
SYMBOL OpAmps/LT1058 -1088 688 R180
SYMATTR InstName U2
SYMBOL cap -1200 672 R0
SYMATTR InstName C2
SYMATTR Value 4.7n
SYMBOL OpAmps/LT1058 -1168 1296 R0
SYMATTR InstName U3
SYMBOL res -1120 1184 R90
WINDOW 0 0 56 VBottom 2
WINDOW 3 32 56 VTop 2
SYMATTR InstName R9
SYMATTR Value 22k
SYMBOL voltage -2048 752 R0
SYMATTR InstName V4
SYMATTR Value PULSE(0 3.3 0 10m 60m 30m 100m 1)
SYMBOL voltage -288 288 R0
SYMATTR InstName V5
SYMATTR Value 5
SYMBOL OpAmps/LT1058 -800 3136 R0
SYMATTR InstName U8
SYMBOL res -896 3168 R90
WINDOW 0 0 56 VBottom 2
WINDOW 3 32 56 VTop 2
SYMATTR InstName R16
SYMATTR Value 22k
SYMBOL res -752 3040 R90
WINDOW 0 0 56 VBottom 2
WINDOW 3 32 56 VTop 2
SYMATTR InstName R17
SYMATTR Value 47k
SYMBOL cap -1024 3168 R90
WINDOW 0 0 32 VBottom 2
WINDOW 3 32 32 VTop 2
SYMATTR InstName C5
SYMATTR Value 100n
SYMBOL res -496 3184 R90
WINDOW 0 0 56 VBottom 2
WINDOW 3 32 56 VTop 2
SYMATTR InstName R18
SYMATTR Value 470
SYMBOL res -624 3040 R90
WINDOW 0 0 56 VBottom 2
WINDOW 3 32 56 VTop 2
SYMATTR InstName R19
SYMATTR Value 50k
SYMBOL OpAmps/LT1058 32 3152 R0
SYMATTR InstName U9
SYMBOL res -80 3184 R90
WINDOW 0 0 56 VBottom 2
WINDOW 3 32 56 VTop 2
SYMATTR InstName R20
SYMATTR Value 100k
SYMBOL res 128 3040 R90
WINDOW 0 0 56 VBottom 2
WINDOW 3 32 56 VTop 2
SYMATTR InstName R21
SYMATTR Value 100k
SYMBOL diode -368 3200 R0
SYMATTR InstName D9
SYMATTR Value 1N4148
SYMBOL diode -368 3264 R180
WINDOW 0 24 64 Left 2
WINDOW 3 24 0 Left 2
SYMATTR InstName D10
SYMATTR Value 1N4148
SYMBOL diode 128 3232 R270
WINDOW 0 32 32 VTop 2
WINDOW 3 0 32 VBottom 2
SYMATTR InstName D11
SYMATTR Value 1N4148
SYMBOL OpAmps/LT1058 368 3168 R0
SYMATTR InstName U10
SYMBOL diode 496 3248 R270
WINDOW 0 32 32 VTop 2
WINDOW 3 0 32 VBottom 2
SYMATTR InstName D12
SYMATTR Value 1N4148
SYMBOL res 560 3248 R270
WINDOW 0 32 56 VTop 2
WINDOW 3 0 56 VBottom 2
SYMATTR InstName R22
SYMATTR Value 820
SYMBOL cap 752 3280 R0
SYMATTR InstName C6
SYMATTR Value 1µ
SYMBOL res 912 3360 R180
WINDOW 0 36 76 Left 2
WINDOW 3 36 40 Left 2
SYMATTR InstName R27
SYMATTR Value 22k
SYMBOL OpAmps/LT1058 1072 3312 M180
SYMATTR InstName U11
SYMBOL res 1136 3376 R90
WINDOW 0 0 56 VBottom 2
WINDOW 3 32 56 VTop 2
SYMATTR InstName R28
SYMATTR Value 100k
SYMBOL res 1024 3568 R180
WINDOW 0 36 76 Left 2
WINDOW 3 36 40 Left 2
SYMATTR InstName R29
SYMATTR Value 22k
TEXT -40 112 Left 2 !.tran 200m UIC
TEXT -40 80 Left 2 !.INCLUDE CD4000.lib
TEXT -40 48 Left 2 !.INCLUDE 74HC.lib
TEXT -40 144 Left 2 !.lib lm13700.sub
TEXT -2416 480 Left 2 ;Ignore this it's just a convenient way to simulate a guitar signal
TEXT -880 2992 Left 2 ;R19 = Sustain control 100k
RECTANGLE Normal -2420 508 -928 1680 2
