Version 4
SHEET 1 1052 1344
WIRE 400 0 -128 0
WIRE -128 64 -128 0
WIRE 32 64 -128 64
WIRE 400 64 400 0
WIRE 400 64 368 64
WIRE -128 144 -128 64
WIRE 32 144 -128 144
WIRE 624 144 368 144
WIRE 656 144 656 128
WIRE 656 144 624 144
WIRE 736 160 736 128
WIRE -128 224 -320 224
WIRE 32 224 -128 224
WIRE 448 224 368 224
WIRE -320 240 -320 224
WIRE -128 256 -128 224
WIRE 448 256 448 224
WIRE 624 272 624 144
WIRE 32 304 0 304
WIRE 384 304 368 304
WIRE -320 352 -320 320
WIRE -128 352 -128 320
WIRE -128 352 -320 352
WIRE -320 368 -320 352
WIRE 448 384 448 320
WIRE 624 384 624 336
WIRE 624 384 448 384
WIRE -336 448 -464 448
WIRE -272 448 -336 448
WIRE 0 448 0 304
WIRE 0 448 -192 448
WIRE 160 448 0 448
WIRE 384 448 384 304
WIRE 384 448 240 448
WIRE -336 480 -336 448
WIRE 0 480 0 448
WIRE 384 496 384 448
WIRE -464 512 -464 448
WIRE -336 592 -336 544
WIRE 0 592 0 544
WIRE 384 592 384 576
WIRE -464 624 -464 592
FLAG -320 368 0
FLAG 384 592 0
FLAG 0 304 -9a
FLAG 448 384 -9a
FLAG 736 160 0
FLAG 0 592 0
FLAG -464 624 0
FLAG -336 592 0
FLAG -464 448 -9b
SYMBOL schottky 640 336 R180
WINDOW 0 24 64 Left 2
WINDOW 3 24 0 Left 2
SYMATTR InstName D1
SYMATTR Value RB050LAM-30
SYMATTR Description Diode
SYMATTR Type diode
SYMBOL mc34063 272 160 R0
SYMATTR InstName U2
SYMBOL polcap -144 256 R0
SYMATTR InstName C1
SYMATTR Value 220”
SYMBOL res -144 128 R0
SYMATTR InstName R1
SYMATTR Value 0.24
SYMBOL res 256 432 R90
WINDOW 0 0 56 VBottom 2
WINDOW 3 32 56 VTop 2
SYMATTR InstName R2
SYMATTR Value 8k2
SYMBOL res 400 592 R180
WINDOW 0 36 76 Left 2
WINDOW 3 36 40 Left 2
SYMATTR InstName R3
SYMATTR Value 51k
SYMBOL cap 464 320 R180
WINDOW 0 24 56 Left 2
WINDOW 3 24 8 Left 2
SYMATTR InstName C2
SYMATTR Value 470p
SYMBOL ind 640 144 R270
WINDOW 0 32 56 VTop 2
WINDOW 3 5 56 VBottom 2
SYMATTR InstName L1
SYMATTR Value 68”
SYMBOL polcap 16 544 R180
WINDOW 0 24 57 Left 2
WINDOW 3 24 8 Left 2
SYMATTR InstName C3
SYMATTR Value 470”
SYMBOL res -480 496 R0
SYMATTR InstName R4
SYMATTR Value 90
SYMBOL Misc/battery -320 224 R0
SYMATTR InstName V2
SYMATTR Value 9
SYMBOL polcap -320 544 R180
WINDOW 0 24 57 Left 2
WINDOW 3 24 8 Left 2
SYMATTR InstName C4
SYMATTR Value 220”
SYMBOL ind -176 432 R90
WINDOW 0 5 56 VBottom 2
WINDOW 3 32 56 VTop 2
SYMATTR InstName L2
SYMATTR Value 4.7”
TEXT -128 -40 Left 2 !.tran 40m startup
TEXT -232 -96 Left 2 !.inc mc34063.lib
