Version 4
SHEET 1 3420 5796
WIRE -2416 -480 -2416 -496
WIRE -2416 -384 -2416 -400
WIRE -2416 -272 -2416 -304
WIRE -2320 -272 -2416 -272
WIRE -2160 -272 -2240 -272
WIRE -2416 -224 -2416 -272
WIRE -2416 -112 -2416 -144
WIRE -2416 0 -2416 -32
WIRE -1456 0 -1456 -32
WIRE -2576 16 -2576 -32
WIRE -1408 16 -1408 -16
WIRE -1408 16 -1424 16
WIRE -1792 32 -2032 32
WIRE -1664 32 -1792 32
WIRE -1552 32 -1584 32
WIRE -1488 32 -1552 32
WIRE -1392 48 -1424 48
WIRE -2032 80 -2032 32
WIRE -1792 80 -1792 32
WIRE -1552 80 -1552 32
WIRE -1456 80 -1456 64
WIRE -2576 128 -2576 96
WIRE -2320 128 -2576 128
WIRE -2160 128 -2160 -272
WIRE -2160 128 -2240 128
WIRE -2096 128 -2160 128
WIRE -1712 128 -1728 128
WIRE -2576 144 -2576 128
WIRE -1712 144 -1712 128
WIRE -2160 176 -2160 128
WIRE -2032 224 -2032 176
WIRE -1552 224 -1552 144
WIRE -1552 224 -2032 224
WIRE -1392 224 -1392 48
WIRE -1392 224 -1552 224
WIRE -2576 256 -2576 224
WIRE -2160 288 -2160 256
WIRE -2032 304 -2032 224
WIRE -1792 400 -1792 176
WIRE -1632 400 -1792 400
WIRE -864 400 -1632 400
WIRE -2032 432 -2032 384
WIRE -1792 480 -1792 400
WIRE -864 480 -864 400
WIRE -2832 608 -2864 608
WIRE -2816 608 -2832 608
WIRE -2704 608 -2736 608
WIRE -1696 640 -2144 640
WIRE -1392 640 -1616 640
WIRE -768 640 -1216 640
WIRE -464 640 -688 640
WIRE -2944 656 -2944 608
WIRE -1488 672 -1600 672
WIRE -2768 720 -2768 704
WIRE -1536 720 -1536 704
WIRE -2832 736 -2832 608
WIRE -2800 736 -2832 736
WIRE -1600 736 -1600 672
WIRE -1568 736 -1600 736
WIRE -2704 752 -2704 608
WIRE -2704 752 -2736 752
WIRE -2624 752 -2704 752
WIRE -2288 752 -2336 752
WIRE -2144 752 -2144 640
WIRE -2144 752 -2208 752
WIRE -1984 752 -2144 752
WIRE -1888 752 -1888 736
WIRE -1488 752 -1488 672
WIRE -1488 752 -1504 752
WIRE -1392 752 -1392 640
WIRE -1392 752 -1488 752
WIRE -1216 752 -1216 640
WIRE -1056 752 -1216 752
WIRE -960 752 -960 736
WIRE -544 752 -656 752
WIRE -2992 768 -3040 768
WIRE -2896 768 -2928 768
WIRE -2800 768 -2896 768
WIRE -1568 768 -1744 768
WIRE -784 768 -816 768
WIRE -672 768 -784 768
WIRE -1792 784 -1792 560
WIRE -864 784 -864 560
WIRE -3488 800 -3584 800
WIRE -2896 800 -2896 768
WIRE -592 800 -592 784
WIRE -2768 816 -2768 784
WIRE -2144 816 -2144 752
WIRE -1744 816 -1744 768
WIRE -1744 816 -1760 816
WIRE -1536 816 -1536 784
WIRE -816 816 -816 768
WIRE -816 816 -832 816
WIRE -784 816 -784 768
WIRE -656 816 -656 752
WIRE -624 816 -656 816
WIRE -544 832 -544 752
WIRE -544 832 -560 832
WIRE -464 832 -464 640
WIRE -464 832 -544 832
WIRE -3584 848 -3584 800
WIRE -1216 848 -1216 832
WIRE -672 848 -672 768
WIRE -624 848 -672 848
WIRE -1984 880 -2032 880
WIRE -1392 880 -1392 752
WIRE -1344 880 -1392 880
WIRE -1104 880 -1264 880
WIRE -1056 880 -1104 880
WIRE -592 896 -592 864
WIRE -2896 912 -2896 880
WIRE -816 912 -816 816
WIRE -2032 928 -2032 880
WIRE -1888 928 -1888 880
WIRE -1744 928 -1744 816
WIRE -1104 928 -1104 880
WIRE -960 928 -960 880
WIRE -2144 944 -2144 896
WIRE -3584 960 -3584 928
WIRE -816 1008 -816 976
WIRE -464 1008 -464 832
WIRE -2032 1040 -2032 1008
WIRE -1104 1040 -1104 1008
WIRE -3600 1088 -3600 1056
WIRE -464 1104 -464 1088
WIRE -464 1104 -656 1104
WIRE -464 1120 -464 1104
WIRE -1312 1168 -1344 1168
WIRE -1216 1168 -1248 1168
WIRE -3600 1200 -3600 1168
WIRE -464 1232 -464 1200
WIRE -1344 1296 -1344 1168
WIRE -1312 1296 -1344 1296
WIRE -1216 1296 -1216 1168
WIRE -1216 1296 -1248 1296
WIRE 80 1392 32 1392
WIRE 192 1392 160 1392
WIRE -3584 1424 -3584 1360
WIRE -1344 1424 -1344 1296
WIRE -1328 1424 -1344 1424
WIRE -1216 1424 -1216 1296
WIRE -1216 1424 -1248 1424
WIRE -3584 1536 -3584 1504
WIRE -3584 1536 -3632 1536
WIRE -1280 1536 -1280 1520
WIRE 112 1536 112 1520
WIRE -3632 1552 -3632 1536
WIRE -1216 1552 -1216 1424
WIRE -1216 1552 -1248 1552
WIRE -1200 1552 -1216 1552
WIRE -1088 1552 -1120 1552
WIRE -368 1552 -432 1552
WIRE -240 1552 -304 1552
WIRE -128 1552 -160 1552
WIRE -80 1552 -128 1552
WIRE 32 1552 32 1392
WIRE 32 1552 0 1552
WIRE 80 1552 32 1552
WIRE -3584 1568 -3584 1536
WIRE -1744 1568 -1744 992
WIRE -1344 1568 -1344 1424
WIRE -1344 1568 -1744 1568
WIRE -1312 1568 -1344 1568
WIRE -1088 1568 -1088 1552
WIRE 192 1568 192 1392
WIRE 192 1568 144 1568
WIRE 256 1568 192 1568
WIRE -1216 1584 -1248 1584
WIRE -128 1584 -128 1552
WIRE 80 1584 64 1584
WIRE 64 1600 64 1584
WIRE -1216 1616 -1216 1584
WIRE -656 1616 -656 1104
WIRE -656 1616 -1216 1616
WIRE -1280 1632 -1280 1600
WIRE 112 1632 112 1600
WIRE -80 1664 -128 1664
WIRE -80 1680 -80 1664
WIRE -3584 1696 -3584 1648
WIRE -128 1696 -128 1664
WIRE -384 1808 -448 1808
WIRE -240 1808 -320 1808
WIRE -128 1808 -128 1776
WIRE -128 1808 -160 1808
WIRE -80 1808 -128 1808
WIRE 32 1808 32 1552
WIRE 32 1808 0 1808
FLAG -3584 1360 +9
FLAG -3584 1696 -9
FLAG -3632 1552 0
FLAG -3584 960 0
FLAG -3488 800 env
FLAG -3600 1200 0
FLAG -3600 1056 GTR
FLAG -2144 944 0
FLAG -2032 1040 0
FLAG -2160 288 0
FLAG -1712 144 0
FLAG -1408 -16 0
FLAG -1216 848 0
FLAG -1104 1040 0
FLAG -464 1232 0
FLAG -1088 1568 0
FLAG -2576 -32 ENV
FLAG -2032 432 -9
FLAG -1456 -32 -9
FLAG -1888 928 -9
FLAG -960 928 -9
FLAG -1888 736 +9
FLAG -960 736 +9
FLAG -1456 80 +9
FLAG -1280 1520 +9
FLAG -1280 1632 -9
FLAG -2336 752 GTR_GAIN
FLAG -816 1008 0
FLAG -464 640 LP_CONS
FLAG -1632 400 IABC
FLAG -432 1552 LP_CONS
FLAG -448 1808 HP_CONS
FLAG -80 1680 0
FLAG 112 1520 +9
FLAG 112 1632 -9
FLAG 64 1600 0
FLAG 256 1568 SUM
FLAG -2416 -496 +9
FLAG -2416 0 -9
FLAG -2576 256 0
FLAG -592 784 +9
FLAG -592 896 -9
FLAG -1536 704 +9
FLAG -1536 816 -9
FLAG -2768 704 +9
FLAG -2768 816 -9
FLAG -2896 912 0
FLAG -3040 768 GTR
FLAG -2944 656 0
FLAG -2624 752 GTR_GAIN
SYMBOL voltage -3584 1408 R0
SYMATTR InstName V2
SYMATTR Value 9
SYMBOL voltage -3584 1552 R0
SYMATTR InstName V3
SYMATTR Value 9
SYMBOL voltage -3584 832 R0
SYMATTR InstName V4
SYMATTR Value PULSE(0 3.3 20m 10m 60m 30m 100m 1)
SYMBOL voltage -3600 1072 R0
SYMATTR InstName V1
SYMATTR Value PULSE(-200mv 200mv 0 200u 200u 3m 6m)
SYMBOL LM13700 -1920 736 R0
SYMATTR InstName U7
SYMBOL res -2192 736 R90
WINDOW 0 0 56 VBottom 2
WINDOW 3 32 56 VTop 2
SYMATTR InstName R22
SYMATTR Value 33k
SYMBOL res -2128 912 R180
WINDOW 0 36 76 Left 2
WINDOW 3 36 40 Left 2
SYMATTR InstName R23
SYMATTR Value 1k
SYMBOL res -2016 1024 R180
WINDOW 0 36 76 Left 2
WINDOW 3 36 40 Left 2
SYMATTR InstName R24
SYMATTR Value 1k
SYMBOL pnp -1728 176 R180
SYMATTR InstName Q3
SYMATTR Value BC857A
SYMBOL pnp -2096 176 M180
SYMATTR InstName Q4
SYMATTR Value BC857A
SYMBOL res -1568 16 R90
WINDOW 0 0 56 VBottom 2
WINDOW 3 32 56 VTop 2
SYMATTR InstName R25
SYMATTR Value 4.7k
SYMBOL res -2224 112 R90
WINDOW 0 0 56 VBottom 2
WINDOW 3 32 56 VTop 2
SYMATTR InstName R26
SYMATTR Value 100k
SYMBOL res -2144 272 R180
WINDOW 0 36 76 Left 2
WINDOW 3 36 40 Left 2
SYMATTR InstName R27
SYMATTR Value 2.2k
SYMBOL res -2016 400 R180
WINDOW 0 36 76 Left 2
WINDOW 3 36 40 Left 2
SYMATTR InstName R28
SYMATTR Value 470k
SYMBOL OpAmps/LT1058 -1456 96 R180
SYMATTR InstName U8
SYMBOL cap -1568 80 R0
SYMATTR InstName C5
SYMATTR Value 4.7n
SYMBOL res -1600 624 R90
WINDOW 0 0 56 VBottom 2
WINDOW 3 32 56 VTop 2
SYMATTR InstName R29
SYMATTR Value 33k
SYMBOL LM13700 -992 736 R0
SYMATTR InstName U10
SYMBOL res -1200 848 R180
WINDOW 0 36 76 Left 2
WINDOW 3 36 40 Left 2
SYMATTR InstName R30
SYMATTR Value 1k
SYMBOL res -1088 1024 R180
WINDOW 0 36 76 Left 2
WINDOW 3 36 40 Left 2
SYMATTR InstName R31
SYMATTR Value 1k
SYMBOL res -672 624 R90
WINDOW 0 0 56 VBottom 2
WINDOW 3 32 56 VTop 2
SYMATTR InstName R32
SYMATTR Value 33k
SYMBOL cap -832 912 R0
SYMATTR InstName C6
SYMATTR Value 1n
SYMBOL res -1248 864 R90
WINDOW 0 0 56 VBottom 2
WINDOW 3 32 56 VTop 2
SYMATTR InstName R33
SYMATTR Value 33k
SYMBOL res -480 992 R0
SYMATTR InstName R34
SYMATTR Value 20k
SYMBOL res -480 1104 R0
SYMATTR InstName R35
SYMATTR Value 80k
SYMBOL OpAmps/LT1058 -1280 1504 M0
SYMATTR InstName U12
SYMBOL diode -1312 1152 M90
WINDOW 0 0 32 VBottom 2
WINDOW 3 72 32 VTop 2
SYMATTR InstName D3
SYMATTR Value 1N4148
SYMATTR Description Light Emitting Diode
SYMATTR Type led
SYMBOL res -1232 1408 R90
WINDOW 0 0 56 VBottom 2
WINDOW 3 32 56 VTop 2
SYMATTR InstName R36
SYMATTR Value 10k
SYMBOL res -1104 1536 R90
WINDOW 0 0 56 VBottom 2
WINDOW 3 32 56 VTop 2
SYMATTR InstName R37
SYMATTR Value 1.8k
SYMBOL res -1808 464 R0
SYMATTR InstName R38
SYMATTR Value 4.7k
SYMBOL res -880 464 R0
SYMATTR InstName R39
SYMATTR Value 4.7k
SYMBOL diode -1248 1312 M270
WINDOW 0 72 32 VTop 2
WINDOW 3 0 32 VBottom 2
SYMATTR InstName D4
SYMATTR Value 1N4148
SYMATTR Description Light Emitting Diode
SYMATTR Type led
SYMBOL res -2224 -288 R90
WINDOW 0 0 56 VBottom 2
WINDOW 3 32 56 VTop 2
SYMATTR InstName R40
SYMATTR Value 100k
SYMBOL res -2400 -288 R180
WINDOW 0 36 76 Left 2
WINDOW 3 36 40 Left 2
SYMATTR InstName R41
SYMATTR Value 9k
SYMBOL res -2400 -128 R180
WINDOW 0 36 76 Left 2
WINDOW 3 36 40 Left 2
SYMATTR InstName R42
SYMATTR Value 1k
SYMBOL cap -1760 928 R0
SYMATTR InstName C8
SYMATTR Value 1n
SYMBOL res -144 1536 R90
WINDOW 0 0 56 VBottom 2
WINDOW 3 32 56 VTop 2
SYMATTR InstName R1
SYMATTR Value 47k
SYMBOL res -144 1792 R90
WINDOW 0 0 56 VBottom 2
WINDOW 3 32 56 VTop 2
SYMATTR InstName R2
SYMATTR Value 47k
SYMBOL res -112 1680 R180
WINDOW 0 36 76 Left 2
WINDOW 3 36 40 Left 2
SYMATTR InstName R3
SYMATTR Value 50k
SYMBOL res -112 1792 R180
WINDOW 0 36 76 Left 2
WINDOW 3 36 40 Left 2
SYMATTR InstName R4
SYMATTR Value 50k
SYMBOL res -96 1568 R270
WINDOW 0 32 56 VTop 2
WINDOW 3 0 56 VBottom 2
SYMATTR InstName R5
SYMATTR Value 33k
SYMBOL res -96 1824 R270
WINDOW 0 32 56 VTop 2
WINDOW 3 0 56 VBottom 2
SYMATTR InstName R6
SYMATTR Value 33k
SYMBOL OpAmps/LT1058 112 1504 R0
SYMATTR InstName U1
SYMBOL res 64 1408 R270
WINDOW 0 32 56 VTop 2
WINDOW 3 0 56 VBottom 2
SYMATTR InstName R7
SYMATTR Value 100k
SYMBOL cap -304 1536 R90
WINDOW 0 0 32 VBottom 2
WINDOW 3 32 32 VTop 2
SYMATTR InstName C1
SYMATTR Value 470n
SYMBOL cap -320 1792 R90
WINDOW 0 0 32 VBottom 2
WINDOW 3 32 32 VTop 2
SYMATTR InstName C2
SYMATTR Value 470n
SYMBOL res -2432 -496 R0
SYMATTR InstName R8
SYMATTR Value 10k
SYMBOL res -2432 -128 R0
SYMATTR InstName R9
SYMATTR Value 10k
SYMBOL res -2592 0 R0
SYMATTR InstName R10
SYMATTR Value 5k
SYMBOL res -2592 128 R0
SYMATTR InstName R11
SYMATTR Value 5k
SYMBOL OpAmps/LT1058 -592 768 R0
SYMATTR InstName U2
SYMBOL OpAmps/LT1058 -1536 688 R0
SYMATTR InstName U3
SYMBOL OpAmps/LT1058 -2768 688 R0
SYMATTR InstName U4
SYMBOL cap -2928 752 R90
WINDOW 0 0 32 VBottom 2
WINDOW 3 32 32 VTop 2
SYMATTR InstName C3
SYMATTR Value 1µ
SYMBOL res -2912 784 R0
SYMATTR InstName R12
SYMATTR Value 1Meg
SYMBOL res -2720 592 R90
WINDOW 0 0 56 VBottom 2
WINDOW 3 32 56 VTop 2
SYMATTR InstName R13
SYMATTR Value 47k
SYMBOL res -2848 592 R90
WINDOW 0 0 56 VBottom 2
WINDOW 3 32 56 VTop 2
SYMATTR InstName R14
SYMATTR Value 12k
TEXT -40 112 Left 2 !.tran 200m UIC
TEXT -40 144 Left 2 !.lib lm13700.sub
TEXT -3608 1768 Left 2 ;Ignore this it's just a convenient way to simulate a guitar signal
TEXT -2840 -272 Left 2 ;R41 & 42 = 10k frequency control
TEXT -472 1488 Left 2 ;R3 & R4 = 100k blend control
TEXT -2912 -72 Left 2 ;R10 & 11 = 10k depth control
